41

Au   5.58917   0.05912   20.85788   
N   7.31470   0.03594   19.26730   
H   7.91865   0.79470   19.61576   
H   7.72403   -0.86931   19.54104   
C   6.47639   0.29013   15.05800   
C   6.15516   -0.88125   15.81049   
C   6.42226   -0.96241   17.19314   
C   7.04187   0.12768   17.86379   
C   7.34739   1.31086   17.13938   
C   7.06688   1.38483   15.75745   
H   6.13530   -1.86429   17.77056   
H   5.65668   -1.73452   15.30863   
H   7.35747   2.29795   15.19902   
H   7.83094   2.16659   17.65437   
C   5.77322   0.52547   10.73808   
C   6.12937   -0.70724   11.36285   
C   6.35232   -0.78338   12.75413   
C   6.22037   0.36674   13.58900   
C   5.85378   1.59717   12.96517   
C   5.63955   1.67548   11.57225   
H   6.68025   -1.74655   13.19475   
H   6.28057   -1.61098   10.73893   
H   5.32302   2.63972   11.12512   
H   5.69773   2.50043   13.58871   
C   5.77952   1.84412   7.12725   
C   5.99527   1.74670   8.51909   
C   5.55158   0.61245   9.26281   
C   4.89246   -0.43293   8.54753   
C   4.67042   -0.34564   7.15625   
C   5.09743   0.80557   6.43686   
H   4.51642   -1.31783   9.09980   
H   4.15431   -1.16775   6.61995   
H   6.14439   2.73086   6.56878   
H   6.54263   2.55967   9.03757   
N   4.87807   0.89802   5.02534   
H   4.93517   1.86236   4.66709   
H   3.98795   0.47853   4.72166   
Au   6.43342   1.56067   1.13648   
Au   4.34762   -0.37087   1.13691   
Au   7.05631   -1.20010   1.13781   
Au   6.27070   -0.15284   3.43903   
